[TITLE]
;;Project Title/Notes
A simple network generated with Viper.

[OPTIONS]
;;Option             Value
FLOW_UNITS           LPS
INFILTRATION         HORTON
FLOW_ROUTING         DYNWAVE
LINK_OFFSETS         DEPTH
MIN_SLOPE            0
ALLOW_PONDING        NO
SKIP_STEADY_STATE    YES

START_DATE           09/01/2020
START_TIME           00:00:00
REPORT_START_DATE    09/01/2020
REPORT_START_TIME    00:00:00
END_DATE             09/05/2020
END_TIME             00:00:00
SWEEP_START          01/01
SWEEP_END            12/31
DRY_DAYS             0
REPORT_STEP          00:01:00
WET_STEP             00:01:00
DRY_STEP             00:01:00
ROUTING_STEP         0:00:05 
RULE_STEP            00:00:00

INERTIAL_DAMPING     PARTIAL
NORMAL_FLOW_LIMITED  BOTH
FORCE_MAIN_EQUATION  D-W
VARIABLE_STEP        0.75
LENGTHENING_STEP     0
MIN_SURFAREA         1.14
MAX_TRIALS           8
HEAD_TOLERANCE       0.0015
SYS_FLOW_TOL         5
LAT_FLOW_TOL         5
MINIMUM_STEP         0.5
THREADS              1

[EVAPORATION]
;;Data Source    Parameters
;;-------------- ----------------
CONSTANT         0.0
DRY_ONLY         NO

[RAINGAGES]
;;Name           Format    Interval SCF      Source    
;;-------------- --------- ------ ------ ----------
Raingage         VOLUME    0:05     1.0      FILE       "data/some_rain.dat" X0         MM   

[SUBCATCHMENTS]
;;Name           Rain Gage        Outlet           Area     %Imperv  Width    %Slope   CurbLen  SnowPack        
;;-------------- ---------------- ---------------- -------- -------- -------- -------- -------- ----------------
SC_5838467073    Raingage         5838467073       0.10486222823505732 100.0    32.38243786916873 3.253286043802897 0                        
SC_1200996354    Raingage         1200996354       0.09994145879420115 0.0      31.613519069252817 2.6516504287719727 0                        
SC_5838467075    Raingage         5838467075       0.30679541947182865 79.875   55.38911621174584 4.760003566741943 0                        
SC_273532934     Raingage         273532934        0.5354028607887563 52.4     73.17122800587376 4.453582255045573 0                        
SC_5838467080    Raingage         5838467080       0.13044809359942444 100.0    36.11759870193815 2.8814484278361 0                        
SC_1193500680    Raingage         1193500680       0.5716676352228477 44.9375  75.60870553202506 1.9615137577056885 0                        
SC_5838467082    Raingage         5838467082       0.5287968633903546 80.92857142857143 72.7184201829464 4.690352848597935 0                        
SC_5838467083    Raingage         5838467083       0.7145587494878041 89.94736842105263 84.5315769099219 3.4815874601665295 0                        
SC_5838467084    Raingage         5838467084       1.0649064108050417 43.12    103.19430269181733 4.87678466796875 0                        
SC_1194805260    Raingage         1194805260       1.0017170260937982 46.5     100.08581448406154 3.678605397542318 0                        
SC_273569814     Raingage         273569814        0.4173387500058788 48.18181818181818 64.60176081237096 3.9298560402610083 0                        
SC_4041725982    Raingage         4041725982       0.2806009257141299 94.0     52.97177793071797 4.979665756225586 0                        
SC_1194805285    Raingage         1194805285       0.9548994147584806 27.416666666666668 97.71895490428051 3.9583956400553384 0                        
SC_4041725990    Raingage         4041725990       0.11183042193274287 96.5     33.44105589432589 4.589637756347656 0                        
SC_4041725991    Raingage         4041725991       0.2821416939901621 90.28571428571429 53.11701177496359 2.552842003958566 0                        
SC_1142986795    Raingage         1142986795       0.54490314368504 78.07142857142857 73.81755507228887 4.6805828639439175 0                        
SC_1193500716    Raingage         1193500716       0.24963801278660186 63.5     49.963788165690744 2.9244410196940103 0                        
SC_1198516271    Raingage         1198516271       0.9035745030542326 75.66666666666667 95.05653596961298 2.373507022857666 0                        
SC_4041564211    Raingage         4041564211       0.04377893488990672 0        20.923416281742025 5        0                        
SC_4041564217    Raingage         4041564217       0.036126324864854106 0        19.00692633353802 5        0                        
SC_4041564218    Raingage         4041564218       0.024812175398089217 0        15.751880966439918 5        0                        
SC_4041564220    Raingage         4041564220       0.055972534356903296 100.0    23.658515244389978 5.0      0                        
SC_1196705857    Raingage         1196705857       0.5280706395066568 72.46153846153847 72.6684690568514 2.1950442974384012 0                        
SC_365473858     Raingage         365473858        0.16018763989070586 92.25    40.0234481136628 2.9519882202148438 0                        
SC_4041564228    Raingage         4041564228       0.050411722482705514 99.0     22.452554973255385 5.590169906616211 0                        
SC_1194805316    Raingage         1194805316       0.39165994507111607 40.22222222222222 62.58274083732 2.6621451907687717 0                        
SC_3998261323    Raingage         3998261323       1.2452546324787732 26.387096774193548 111.5909777929548 3.6077381257087953 0                        
SC_5008500812    Raingage         5008500812       2.193136093493643 64.50909090909092 148.0924067430077 2.327630060369318 0                        
SC_1194805327    Raingage         1194805327       0.22917534527292668 55.75    47.87226183009601 1.5539218187332153 0                        
SC_5008500817    Raingage         5008500817       0.824344911145697 56.77272727272727 90.79344200688159 1.9259751059792258 0                        
SC_1195599959    Raingage         1195599959       1.00846459640039 56.074074074074076 100.42233797320145 2.399238868995949 0                        
SC_3998261336    Raingage         3998261336       2.707253524197775 16.44776119402985 164.53733692380507 3.3416825479535914 0                        
SC_3998261338    Raingage         3998261338       3.013893331862965 28.223684210526315 173.6056834283649 3.6849449559261926 0                        
SC_388608098     Raingage         388608098        0.7353192011547861 98.05555555555556 85.75075516605007 2.552501254611545 0                        
SC_3998261347    Raingage         3998261347       1.8122519679993456 24.26086956521739 134.61990818594944 2.299869371497113 0                        
SC_1201748068    Raingage         1201748068       0.5862379190707746 5.733333333333333 76.56617523885953 2.6861119588216145 0                        
SC_1142986859    Raingage         1142986859       0.4772009635887811 72.46153846153847 69.07973390139695 4.586817227877104 0                        
SC_3998261356    Raingage         3998261356       1.909824602015852 9.133333333333333 138.1964037888053 3.0869133843315972 0                        
SC_1196611692    Raingage         1196611692       1.2532257761546457 41.67741935483871 111.94756701932586 3.20677972608997 0                        
SC_1196611695    Raingage         1196611695       0.9037765113671253 67.31818181818181 95.0671610687479 2.9571491588245737 0                        
SC_1196611696    Raingage         1196611696       1.8663502538771446 54.170212765957444 136.61443019963684 1.5553257718999336 0                        
SC_1196611697    Raingage         1196611697       1.707707404866545 63.81395348837209 130.67927933940197 3.1938785286836846 0                        
SC_1195599986    Raingage         1195599986       0.431078454730048 56.666666666666664 65.65656515003263 5.185372034708659 0                        
SC_1196705918    Raingage         1196705918       1.2688678058966667 60.266666666666666 112.64403250490754 2.5785931905110675 0                        
SC_5029265541    Raingage         5029265541       0.4511402508299996 96.18181818181819 67.16697483361891 4.145587574351918 0                        
SC_1201748103    Raingage         1201748103       0.09068421239159673 43.0     30.11381948401709 2.5      0                        
SC_5029265545    Raingage         5029265545       1.6447956727837332 72.7560975609756 128.24958763223114 5.015089825886052 0                        
SC_27662477      Raingage         27662477         0.06844551242396525 94.0     26.162093269454807 2.5      0                        
SC_27662479      Raingage         27662479         0.18620905215078432 99.0     43.15194690286689 3.0315792560577393 0                        
SC_1196705936    Raingage         1196705936       0.13225007082071907 51.333333333333336 36.36620282909931 2.3760245641072593 0                        
SC_27662481      Raingage         27662481         1.0281227600978426 95.92    101.39638850066815 1.725543212890625 0                        
SC_269574293     Raingage         269574293        0.20188132017220284 98.57142857142857 44.93120521110054 6.441198076520648 0                        
SC_269574294     Raingage         269574294        0.5489935057651015 73.13333333333334 74.09409597026618 2.7919186909993488 0                        
SC_27662485      Raingage         27662485         0.32275538068269655 65.44444444444444 56.81156402377042 2.8487300872802734 0                        
SC_27662487      Raingage         27662487         1.3641611546670582 69.48484848484848 116.7973096722291 3.190554069750237 0                        
SC_27662495      Raingage         27662495         0.9295274205353128 69.95833333333333 96.41200239261255 5.108382225036621 0                        
SC_27662499      Raingage         27662499         0.3646698486045878 69.125   60.387900162581225 4.984889984130859 0                        
SC_1196705959    Raingage         1196705959       0.43453142650727933 63.45454545454545 65.91899775537242 2.1609282060102983 0                        
SC_1196726440    Raingage         1196726440       10.772987786161845 3.9518518518518517 328.222299458185 3.3602064344618054 0                        
SC_27662506      Raingage         27662506         0.9482700905942402 52.86363636363637 97.37916053213029 0.9080345847389915 0                        
SC_27662509      Raingage         27662509         0.20175803566331832 83.5     44.917483863560115 1.25     0                        
SC_27662515      Raingage         27662515         0.7217064972782302 45.22222222222222 84.95331054633658 2.511823230319553 0                        
SC_1196705972    Raingage         1196705972       0.19199854246122414 76.25    43.817638282000566 2.133883476257324 0                        
SC_1193996470    Raingage         1193996470       0.9982582604032878 50.96153846153846 99.91287506639411 3.8170075049767127 0                        
SC_388608187     Raingage         388608187        0.7562158983141734 59.0     86.96067492344878 4.632203046013327 0                        
SC_27412668      Raingage         27412668         0.12451295360753609 93.33333333333333 35.286393072618814 7.156263987223308 0                        
SC_27662526      Raingage         27662526         0.8186204662385491 23.5     90.47764730797044 2.6581825256347655 0                        
SC_27662537      Raingage         27662537         0.22290494914841724 20.4     47.212810671301625 3.121320343017578 0                        
SC_27662538      Raingage         27662538         0.3486048620316854 19.5     59.04276941605004 2.3112735748291016 0                        
SC_27662540      Raingage         27662540         0.16567715241808603 40.75    40.70345838108674 3.3038532733917236 0                        
SC_27662542      Raingage         27662542         0.2137363396344222 22.8     46.231627662718324 3.879324722290039 0                        
SC_1193996495    Raingage         1193996495       0.15151521601138424 61.0     38.924955492766365 1.6483640670776367 0                        
SC_3998261458    Raingage         3998261458       0.3623082370943719 22.5     60.192045744796864 2.282366180419922 0                        
SC_27662548      Raingage         27662548         0.47215846792945376 87.41666666666667 68.71378813087325 1.875    0                        
SC_27662550      Raingage         27662550         0.551900030086668 32.92857142857143 74.28997443038112 3.7753306797572543 0                        
SC_1193996505    Raingage         1193996505       1.0832821918285849 49.535714285714285 104.08084318589012 4.902327401297433 0                        
SC_27412702      Raingage         27412702         0.14601564042094456 100.0    38.21199293689673 9.344861348470053 0                        
SC_27662559      Raingage         27662559         1.2982120036285048 83.18181818181819 113.93910670303259 3.295274676698627 0                        
SC_27662560      Raingage         27662560         0.5431317334002546 63.5     73.69747169342071 1.7542463030133928 0                        
SC_1195600102    Raingage         1195600102       0.5164897781044351 64.66666666666667 71.8672232735087 2.2233897844950357 0                        
SC_27662571      Raingage         27662571         0.8589568461509787 61.916666666666664 92.67992480310818 3.5092957814534507 0                        
SC_269576427     Raingage         269576427        0.9330163400184938 97.44    96.59277095199691 2.6785516357421875 0                        
SC_7127800048    Raingage         7127800048       0.04121405994617468 91.0     20.301246253906353 2.3140368461608887 0                        
SC_1195600116    Raingage         1195600116       0.3922860283576257 57.888888888888886 62.63274130657429 2.7079014248318143 0                        
SC_269574389     Raingage         269574389        0.9874085543918106 65.48    99.36843333734365 3.90287841796875 0                        
SC_271225076     Raingage         271225076        0.3784625298290287 79.44444444444444 61.519308337222775 1.3888888888888888 0                        
SC_3998261495    Raingage         3998261495       0.7147375179292468 56.22222222222222 84.54215031150123 1.556219842698839 0                        
SC_1200996600    Raingage         1200996600       0.8149963965203001 41.15    90.27715084783635 1.973137664794922 0                        
SC_1201748217    Raingage         1201748217       0.49402969817555104 10.076923076923077 70.28724622401641 3.568196516770583 0                        
SC_6062696697    Raingage         6062696697       0.041217849785725305 0        20.30217963316385 5        0                        
SC_1193996542    Raingage         1193996542       0.3863303962981878 49.4     62.1554821635379 6.073419189453125 0                        
SC_7127800063    Raingage         7127800063       0.1664994976977382 81.6     40.80434997616531 2.4496477127075194 0                        
SC_273533187     Raingage         273533187        0.06846421772664944 76.0     26.165667911721542 2.5      0                        
SC_1200996620    Raingage         1200996620       0.1470068233398738 49.666666666666664 38.341468847694635 1.4225889841715496 0                        
SC_414253324     Raingage         414253324        0.3663543546825981 0.0      60.527213274906195 3.284666485256619 0                        
SC_7127800079    Raingage         7127800079       0.19076134186121846 64.4     43.6762340250643 7.122225952148438 0                        
SC_1201748240    Raingage         1201748240       0.6374227664924865 3.2941176470588234 79.83876041701089 5.160804748535156 0                        
SC_414253328     Raingage         414253328        0.24878310113327548 25.0     49.87816166753497 2.7045618693033853 0                        
SC_3035894047    Raingage         3035894047       0.5737494486591721 88.07142857142857 75.74625064378911 5.555661882672991 0                        
SC_1193500968    Raingage         1193500968       1.013873164039621 55.18518518518518 100.69126893825606 1.3595496283637152 0                        
SC_30619946      Raingage         30619946         0.2472529622691767 33.166666666666664 49.72453743064652 1.6647300720214844 0                        
SC_30619947      Raingage         30619947         0.08978919989639549 51.0     29.96484605273244 3.0177669525146484 0                        
SC_1196706092    Raingage         1196706092       0.22572725334094643 68.2     47.51076229034285 2.9382465362548826 0                        
SC_1193996586    Raingage         1193996586       0.356550423655988 53.857142857142854 59.71184335255344 4.623737880161831 0                        
SC_273920302     Raingage         273920302        0.09998401299659618 32.666666666666664 31.620248733461313 6.627372741699219 0                        
SC_1193996608    Raingage         1193996608       0.5833209383108641 50.57142857142857 76.37545013359097 1.1486372266496931 0                        
SC_1201748292    Raingage         1201748292       0.5899351965959195 40.733333333333334 76.80723902054542 2.8898157755533855 0                        
SC_273930566     Raingage         273930566        0.21423822825242686 78.83333333333333 46.2858756266344 1.2395307223002117 0                        
SC_414255431     Raingage         414255431        0.8397396262594501 11.333333333333334 91.63730824612048 4.035105387369792 0                        
SC_414255432     Raingage         414255432        2.1023628228791953 10.596153846153847 144.99526967729656 5.567064138559195 0                        
SC_270049621     Raingage         270049621        0.4129063866009901 32.8     64.25779225907081 3.563763427734375 0                        
SC_570311005     Raingage         570311005        0.8354457241551205 46.714285714285715 91.40272009930123 3.013560340518043 0                        
SC_1196706148    Raingage         1196706148       0.35489918619815847 68.25    59.573415732032565 2.207913875579834 0                        
SC_1196706175    Raingage         1196706175       0.2509233907821621 77.16666666666667 50.09225397026591 1.8720951080322266 0                        
SC_1195600256    Raingage         1195600256       0.19853907020098496 81.8     44.557723258822925 2.132721519470215 0                        
SC_277399939     Raingage         277399939        0.361627417350368 99.44444444444444 60.13546518905196 1.584016376071506 0                        
SC_1196706186    Raingage         1196706186       0.27412159994289503 65.85714285714286 52.35662326228603 2.0897248131888255 0                        
SC_3514253709    Raingage         3514253709       1.6652971831621703 79.14285714285714 129.04639410546002 2.346670604887463 0                        
SC_1193996690    Raingage         1193996690       0.36607444457787286 63.888888888888886 60.504086190758464 2.384367412990994 0                        
SC_3795749269    Raingage         3795749269       0.2340786460204383 14.857142857142858 48.3816748387691 1.716571535382952 0                        
SC_1134010792    Raingage         1134010792       0.07982689496907759 100.0    28.253653740547893 4.7097086906433105 0                        
SC_3079319986    Raingage         3079319986       0.12391271717746905 71.0     35.201238213657916 2.5      0                        
SC_3079319987    Raingage         3079319987       0.06917428640442187 48.0     26.301005000650047 1.6666666666666667 0                        
SC_1193501118    Raingage         1193501118       0.5625835282250986 63.5     75.00556834163038 5.322522299630301 0                        
SC_1141967299    Raingage         1141967299       0.5384574016146015 14.785714285714286 73.37965669138835 2.071166855948312 0                        
SC_1141967301    Raingage         1141967301       0.45296258534099587 37.0     67.3024951499568 3.55732169518104 0                        
SC_1237334484    Raingage         1237334484       0.30746247156745315 38.875   55.44929860399076 0.6700383424758911 0                        
SC_1195600341    Raingage         1195600341       0.3787321281716786 34.5     61.54121612152937 2.7747116088867188 0                        
SC_587676124     Raingage         587676124        2.376567747488425 13.540983606557377 154.16120612814447 3.3119056576588113 0                        
SC_2015203813    Raingage         2015203813       1.029300512747203 62.8     101.45444853466027 2.5893060302734376 0                        
SC_1190091238    Raingage         1190091238       0.788998231169888 62.421052631578945 88.82557239724875 2.2680172167326274 0                        
SC_4988502506    Raingage         4988502506       0.10060572788071541 64.33333333333333 31.718405994109386 1.4921410878499348 0                        
SC_1192665582    Raingage         1192665582       0.7397407602961987 89.88888888888889 86.00818334880691 2.066829045613607 0                        
SC_1196655088    Raingage         1196655088       0.1474309097801744 72.75    38.396732905310365 1.8341825008392334 0                        
SC_1193996784    Raingage         1193996784       0.6110762725345934 35.5     78.17136768245733 1.402005331856864 0                        
SC_1729038836    Raingage         1729038836       0.23076933180604092 95.0     48.03845665776961 5.854689915974935 0                        
SC_2856276468    Raingage         2856276468       0.5423127229634311 18.714285714285715 73.64188502227731 3.731692450387137 0                        
SC_3302113786    Raingage         3302113786       0.9806809773518267 41.16    99.02933794345122 2.133551025390625 0                        
SC_3302113787    Raingage         3302113787       0.888289570686458 17.434782608695652 94.24911515162664 4.798249617866848 0                        
SC_4041724412    Raingage         4041724412       0.035119425912120986 0        18.740177670481405 5        0                        
SC_4041724413    Raingage         4041724413       0.027005266302299356 100.0    16.433279131779926 8.385254859924316 0                        
SC_1195600381    Raingage         1195600381       0.7698027281097441 72.8     87.73840254470925 1.1139883041381835 0                        
SC_1143745023    Raingage         1143745023       0.5676442492132762 70.46153846153847 75.34216941482879 2.4782738318810096 0                        
SC_1193501185    Raingage         1193501185       0.595878893591121 72.5     77.19319228993714 2.015251568385533 0                        
SC_2019252746    Raingage         2019252746       0.15710185377620378 99.5     39.63607621551404 2.957808256149292 0                        
SC_415441421     Raingage         415441421        0.27008845590746594 17.666666666666668 51.9700352037081 3.2599080403645835 0                        
SC_1143745037    Raingage         1143745037       0.11380096794057849 91.33333333333333 33.73439905209199 3.863696734110514 0                        
SC_3953779215    Raingage         3953779215       0.09806490108600346 92.0     31.315315915060392 0.0      0                        
SC_2019252751    Raingage         2019252751       0.18740573273223746 91.57142857142857 43.290383774256085 3.587510245186942 0                        
SC_1190091281    Raingage         1190091281       0.33445140536302204 86.875   57.831773737541724 3.7003467082977295 0                        
SC_2019252758    Raingage         2019252758       0.17462195244030077 88.25    41.78779157125928 9.642459869384766 0                        
SC_587797017     Raingage         587797017        1.046854427472812 44.0     102.31590430978031 3.163456843449519 0                        
SC_1195600413    Raingage         1195600413       0.3470631474652997 57.44444444444444 58.91206561183368 2.156422085232205 0                        
SC_759730721     Raingage         759730721        0.05687392245084839 81.0     23.848254118666294 2.5758252143859863 0                        
SC_587797025     Raingage         587797025        3.2547522627221457 15.542168674698795 180.40931967950397 3.4770809311464608 0                        
SC_1143745062    Raingage         1143745062       0.1405162469231077 79.66666666666667 37.48549678517116 2.2014989852905273 0                        
SC_2019252775    Raingage         2019252775       0.03638198167004589 0        19.074061358306963 5        0                        
SC_1143745064    Raingage         1143745064       0.5257416940467649 61.714285714285715 72.5080474186669 7.5884279523577005 0                        
SC_1141967405    Raingage         1141967405       0.46022990992858503 62.81818181818182 67.84024689876836 1.9164473793723367 0                        
SC_759730734     Raingage         759730734        0.08308271875828602 61.0     28.824073056784673 3.4597086906433105 0                        
SC_30059059      Raingage         30059059         0.05543257458740637 50.5     23.544123383002894 3.0177669525146484 0                        
SC_1192665652    Raingage         1192665652       0.8655109011548355 73.25    93.03283835048974 6.46346435546875 0                        
SC_1134010935    Raingage         1134010935       0.14291340816363715 89.0     37.803889768598836 6.522588729858398 0                        
SC_1143745081    Raingage         1143745081       0.29041432892848423 87.14285714285714 53.890103815866254 1.197697639465332 0                        
SC_1192821307    Raingage         1192821307       0.5599231418033517 58.857142857142854 74.8280122549939 3.106233596801758 0                        
SC_587797051     Raingage         587797051        2.6982927231711153 23.597014925373134 164.26480825700662 2.357575146119986 0                        
SC_1143745085    Raingage         1143745085       0.18482549886402658 81.5     42.99133620440595 6.19717264175415 0                        
SC_1190091330    Raingage         1190091330       0.18538759429340892 75.25    43.05665968156482 2.721313714981079 0                        
SC_1143745096    Raingage         1143745096       0.9353226705452351 58.36363636363637 96.71208148650483 1.3869071440263228 0                        
SC_587797066     Raingage         587797066        0.603530371107483 59.125   77.68721716649934 2.350937843322754 0                        
SC_759730766     Raingage         759730766        0.05118401706357919 94.5     22.62388495894973 2.2382116317749023 0                        
SC_1196655184    Raingage         1196655184       0.19679703331737486 75.0     44.361811653422684 1.395284652709961 0                        
SC_4108505682    Raingage         4108505682       0.29366445842426636 86.85714285714286 54.19081641978338 2.817531040736607 0                        
SC_6702615126    Raingage         6702615126       0.30201579778807636 79.0     54.955963988276686 2.1330535071236745 0                        
SC_1143745117    Raingage         1143745117       0.13037170142528554 92.0     36.107021675192975 3.219113349914551 0                        
SC_1195600479    Raingage         1195600479       0.3474240105543009 92.33333333333333 58.94268491969982 3.2640902201334634 0                        
SC_1143745133    Raingage         1143745133       0.1590139821819681 92.75    39.876557296482865 1.5610475540161133 0                        
SC_607971949     Raingage         607971949        5.6386435385997595 13.295774647887324 237.4582813590581 2.6061274568799515 0                        
SC_1143745135    Raingage         1143745135       0.1714024373637798 26.0     41.4007774520938 2.5      0                        
SC_6320497263    Raingage         6320497263       0.6451749933644861 58.23529411764706 80.32278589320008 5.619946199304917 0                        
SC_1128559217    Raingage         1128559217       0.01783001419787576 0        13.352907622640005 5        0                        
SC_6320497265    Raingage         6320497265       1.7192312663249627 53.523809523809526 131.11945951402342 3.255728222074963 0                        
SC_1143745139    Raingage         1143745139       0.3301497340175477 62.0     57.458657660751854 6.678215503692627 0                        
SC_1193501299    Raingage         1193501299       0.49391678506849185 27.666666666666668 70.27921350360232 5.441917419433594 0                        
SC_1190091385    Raingage         1190091385       0.3565956147846766 61.2     59.71562733361148 5.289430236816406 0                        
SC_1143745147    Raingage         1143745147       0.3554260804162689 75.25    59.61762159095823 2.0630815029144287 0                        
SC_1143745148    Raingage         1143745148       0.13449901656868085 100.0    36.67410756496753 3.678511301676432 0                        
SC_4146600574    Raingage         4146600574       1.2228287638674131 39.93103448275862 110.58158815405994 2.785900247508082 0                        
SC_1196655236    Raingage         1196655236       0.5294441574375061 53.285714285714285 72.76291345441756 2.990175247192383 0                        
SC_1143745156    Raingage         1143745156       0.12134435260030628 69.0     34.83451630212572 0.0      0                        
SC_1143745160    Raingage         1143745160       0.10945118279005193 61.333333333333336 33.083407138632495 5.365497589111328 0                        
SC_1143745169    Raingage         1143745169       1.3592564751956149 80.02941176470588 116.58715517567168 3.0455964032341454 0                        
SC_27789973      Raingage         27789973         0.13399765186457072 72.66666666666667 36.605689703182854 1.1279611587524414 0                        
SC_1143745175    Raingage         1143745175       0.9984828536430259 42.92307692307692 99.92411388864181 3.7963027954101562 0                        