[TITLE]
;;Project Title/Notes

[OPTIONS]
;;Option             Value
FLOW_UNITS           LPS
INFILTRATION         HORTON
FLOW_ROUTING         DYNWAVE
LINK_OFFSETS         DEPTH
MIN_SLOPE            0
ALLOW_PONDING        YES
SKIP_STEADY_STATE    YES

START_DATE           12/15/2017
START_TIME           00:00:00
REPORT_START_DATE    12/15/2017
REPORT_START_TIME    00:00:00
END_DATE             12/15/2017
END_TIME             06:00:00
SWEEP_START          01/01
SWEEP_END            12/31
DRY_DAYS             0
REPORT_STEP          00:01:00
WET_STEP             00:01:00
DRY_STEP             06:00:00
ROUTING_STEP         0:00:05 

INERTIAL_DAMPING     PARTIAL
NORMAL_FLOW_LIMITED  BOTH
FORCE_MAIN_EQUATION  H-W
VARIABLE_STEP        0.75
LENGTHENING_STEP     0
MIN_SURFAREA         1.14
MAX_TRIALS           8
HEAD_TOLERANCE       0.0015
SYS_FLOW_TOL         5
LAT_FLOW_TOL         5
MINIMUM_STEP         0.5
THREADS              1

[EVAPORATION]
;;Data Source    Parameters
;;-------------- ----------------
CONSTANT         0.0
DRY_ONLY         NO

[RAINGAGES]
;;Name           Format    Interval SCF      Source    
;;-------------- --------- ------ ------ ----------
1                INTENSITY 0:15     1.0      TIMESERIES 5               

[SUBCATCHMENTS]
;;Name           Rain Gage        Outlet           Area     %Imperv  Width    %Slope   CurbLen  SnowPack        
;;-------------- ---------------- ---------------- -------- -------- -------- -------- -------- ----------------
532              1                196              2.08     80       208      0.1      0                        
533              1                10               1.46     80       146      0.1      0                        
534              1                94               1.64     80       164      0.1      0                        
535              1                212              2        80       200      0.1      0                        
536              1                38               1.89     80       189      0.1      0                        
537              1                18               1.84     80       184      0.1      0                        
538              1                145              1.78     80       178      0.1      0                        
539              1                340              1.73     80       173      0.1      0                        
540              1                60               3.2      80       320      0.1      0                        
541              1                86               3.09     80       309      0.1      0                        
542              1                106              1.52     80       152      0.1      0                        
543              1                322              2.53     80       253      0.1      0                        
544              1                112              5.8      80       580      0.1      0                        
545              1                327              2.35     80       235      0.1      0                        
546              1                279              2.31     80       231      0.1      0                        
547              1                163              2.03     80       203      0.1      0                        
548              1                210              1.64     80       164      0.1      0                        
549              1                263              2.31     80       231      0.1      0                        
550              1                29               2.35     80       235      0.1      0                        
551              1                168              1.14     80       114      0.1      0                        
552              1                7                1.18     80       118      0.1      0                        
553              1                313              1.15     80       115      0.1      0                        
554              1                102              1.15     80       115      0.1      0                        
555              1                332              1.15     80       115      0.1      0                        
556              1                86               1.15     80       115      0.1      0                        
557              1                201              1.15     80       115      0.1      0                        
558              1                286              2.28     80       228      0.1      0                        
559              1                78               1.2      80       120      0.1      0                        
560              1                27               2.18     80       218      0.1      0                        
561              1                181              2.31     80       231      0.1      0                        
562              1                232              1.98     80       198      0.1      0                        
563              1                124              3.61     80       361      0.1      0                        
564              1                257              3.36     80       336      0.1      0                        
565              1                165              3.23     80       323      0.1      0                        
566              1                176              2.85     80       285      0.1      0                        
567              1                240              2.55     80       255      0.1      0                        
568              1                178              2.32     80       232      0.1      0                        
569              1                307              2.34     80       234      0.1      0                        
570              1                130              2.02     80       202      0.1      0                        
571              1                109              3.55     80       355      0.1      0                        
572              1                200              1.64     80       164      0.1      0                        
573              1                91               1.62     80       162      0.1      0                        
574              1                167              1.54     80       154      0.1      0                        
575              1                291              1.45     80       145      0.1      0                        
576              1                183              1.38     80       138      0.1      0                        
577              1                207              1.31     80       131      0.1      0                        
578              1                326              1.28     80       128      0.1      0                        
579              1                73               2.41     80       241      0.1      0                        
580              1                253              1.11     80       111      0.1      0                        
581              1                215              1.97     80       197      0.1      0                        
582              1                252              1.78     80       178      0.1      0                        
583              1                317              3.05     80       305      0.1      0                        
584              1                96               2.97     80       297      0.1      0                        
585              1                58               2.64     80       264      0.1      0                        
586              1                288              1.91     80       191      0.1      0                        
587              1                63               1.85     80       185      0.1      0                        
588              1                160              1.9      80       190      0.1      0                        
589              1                33               1.88     80       188      0.1      0                        
590              1                328              1.86     80       186      0.1      0                        
591              1                25               1.91     80       191      0.1      0                        
592              1                289              1.92     80       192      0.1      0                        
593              1                164              2        80       200      0.1      0                        
594              1                188              1.95     80       195      0.1      0                        
595              1                250              2        80       200      0.1      0                        
596              1                167              1.98     80       198      0.1      0                        
597              1                139              1.99     80       199      0.1      0                        
598              1                324              2.04     80       204      0.1      0                        
599              1                62               2.09     80       209      0.1      0                        
600              1                292              2.05     80       205      0.1      0                        
601              1                150              2.12     80       212      0.1      0                        
602              1                266              2.08     80       208      0.1      0                        
603              1                223              2.14     80       214      0.1      0                        
604              1                275              2.22     80       222      0.1      0                        
605              1                40               2.02     80       202      0.1      0                        
606              1                13               2.11     80       211      0.1      0                        
607              1                173              2.14     80       214      0.1      0                        
608              1                282              2.75     80       275      0.1      0                        
609              1                138              2.78     80       278      0.1      0                        
610              1                56               2.15     80       215      0.1      0                        
611              1                9                2.14     80       214      0.1      0                        
612              1                156              2.31     80       231      0.1      0                        
613              1                134              1.82     80       182      0.1      0                        
614              1                50               2.9      80       290      0.1      0                        
615              1                221              3.6      80       360      0.1      0                        
616              1                103              1.84     80       184      0.1      0                        
617              1                137              1.79     80       179      0.1      0                        
618              1                6                1.81     80       181      0.1      0                        
619              1                245              1.8      80       180      0.1      0                        
620              1                307              1.78     80       178      0.1      0                        
621              1                66               1.82     80       182      0.1      0                        
622              1                279              1.79     80       179      0.1      0                        
623              1                330              1.81     80       181      0.1      0                        
624              1                1                1.82     80       182      0.1      0                        
625              1                99               1.81     80       181      0.1      0                        
626              1                199              1.8      80       180      0.1      0                        
627              1                65               1.81     80       181      0.1      0                        
628              1                273              1.8      80       180      0.1      0                        
629              1                266              1.85     80       185      0.1      0                        
630              1                336              1.77     80       177      0.1      0                        
631              1                132              1.83     80       183      0.1      0                        
632              1                276              1.8      80       180      0.1      0                        
633              1                111              1.93     80       193      0.1      0                        
634              1                72               1.78     80       178      0.1      0                        
635              1                190              1.78     80       178      0.1      0                        
636              1                302              1.72     80       172      0.1      0                        
637              1                210              1.92     80       192      0.1      0                        
638              1                202              2.88     80       288      0.1      0                        
639              1                320              2.26     80       226      0.1      0                        
640              1                264              1.84     80       184      0.1      0                        
641              1                92               3.14     80       314      0.1      0                        
642              1                169              1.76     80       176      0.1      0                        
643              1                140              1.78     80       178      0.1      0                        
644              1                175              1.78     80       178      0.1      0                        
645              1                195              1.74     80       174      0.1      0                        
646              1                83               1.74     80       174      0.1      0                        
647              1                187              1.76     80       176      0.1      0                        
648              1                267              1.77     80       177      0.1      0                        
649              1                298              1.75     80       175      0.1      0                        
650              1                21               1.73     80       173      0.1      0                        
651              1                222              1.77     80       177      0.1      0                        
652              1                314              1.75     80       175      0.1      0                        
653              1                2                1.75     80       175      0.1      0                        
654              1                217              1.75     80       175      0.1      0                        
655              1                337              1.75     80       175      0.1      0                        
656              1                9                1.75     80       175      0.1      0                        
657              1                330              1.75     80       175      0.1      0                        
658              1                310              1.75     80       175      0.1      0                        
659              1                100              1.75     80       175      0.1      0                        
660              1                339              1.75     80       175      0.1      0                        
661              1                249              1.79     80       179      0.1      0                        
662              1                316              2.68     80       268      0.1      0                        
663              1                77               1.79     80       179      0.1      0                        
664              1                128              8.4      80       840      0.1      0                        
665              1                337              7.6      80       760      0.1      0                        
666              1                95               6        80       600      0.1      0                        
667              1                304              3.19     80       319      0.1      0                        
668              1                89               2.62     80       262      0.1      0                        
669              1                265              2.69     80       269      0.1      0                        
670              1                87               2.63     80       263      0.1      0                        
671              1                321              2.64     80       264      0.1      0                        
672              1                241              4        80       400      0.1      0                        
673              1                12               3.42     80       342      0.1      0                        
674              1                236              5        80       500      0.1      0                        
675              1                43               4.7      80       470      0.1      0                        
676              1                56               4.55     80       455      0.1      0                        
677              1                219              4        80       400      0.1      0                        
678              1                93               4.1      80       410      0.1      0                        
679              1                31               3.52     80       352      0.1      0                        
680              1                160              1.5      80       150      0.1      0                        
681              1                179              2.7      80       270      0.1      0                        
682              1                287              2.19     80       219      0.1      0                        
683              1                185              2.21     80       221      0.1      0                        
684              1                161              3.54     80       354      0.1      0                        
685              1                39               3.38     80       338      0.1      0                        
686              1                233              4.26     80       426      0.1      0                        
687              1                220              18       20       1800     0.1      0                        
688              1                15               1.98     80       198      0.1      0                        
689              1                281              1.88     80       188      0.1      0                        
690              1                53               4.66     80       466      0.1      0                        
691              1                297              5.92     80       592      0.1      0                        
692              1                129              3.3      80       330      0.1      0                        
693              1                255              3.37     80       337      0.1      0                        
694              1                218              6.1      80       610      0.1      0                        
695              1                234              1.34     80       134      0.1      0                        
696              1                11               1.82     80       182      0.1      0                        
697              1                243              2.12     80       212      0.1      0                        
698              1                51               3.69     80       369      0.1      0                        
699              1                141              2.9      80       290      0.1      0                        
700              1                64               3.66     80       366      0.1      0                        
701              1                206              2.74     80       274      0.1      0                        
702              1                84               1.65     80       165      0.1      0                        
703              1                152              2.6      80       260      0.1      0                        
704              1                189              2.7      80       270      0.1      0                        
705              1                89               1.42     80       142      0.1      0                        
706              1                260              1.16     80       116      0.1      0                        
707              1                182              2.38     80       238      0.1      0                        
708              1                276              3.26     80       326      0.1      0                        
709              1                54               1.56     80       156      0.1      0                        
710              1                335              1        80       100      0.1      0                        
711              1                98               0.85     80       85       0.1      0                        
712              1                26               2.48     80       248      0.1      0                        
713              1                37               1        80       100      0.1      0                        
714              1                201              1        80       100      0.1      0                        
715              1                291              1        80       100      0.1      0                        
716              1                20               1        80       100      0.1      0                        
717              1                113              1        80       100      0.1      0                        
718              1                67               1.5      80       150      0.1      0                        
719              1                68               1.5      80       150      0.1      0                        
720              1                315              1.5      80       150      0.1      0                        
721              1                308              1.5      80       150      0.1      0                        
722              1                51               1.5      80       150      0.1      0                        
723              1                270              1.5      80       150      0.1      0                        
724              1                311              1.5      80       150      0.1      0                        
725              1                3                1.5      80       150      0.1      0                        
726              1                305              1.5      80       150      0.1      0                        
727              1                128              1.5      80       150      0.1      0                        
728              1                147              1.5      80       150      0.1      0                        
729              1                231              1.5      80       150      0.1      0                        
730              1                71               1.5      80       150      0.1      0                        
731              1                124              1.5      80       150      0.1      0                        
732              1                135              1.5      80       150      0.1      0                        
733              1                142              1.5      80       150      0.1      0                        
734              1                61               1.5      80       150      0.1      0                        
735              1                287              1.5      80       150      0.1      0                        
736              1                46               1.5      80       150      0.1      0                        
737              1                152              1.5      80       150      0.1      0                        
738              1                242              1.5      80       150      0.1      0                        
739              1                115              1.5      80       150      0.1      0                        
740              1                325              1.5      80       150      0.1      0                        
741              1                296              1.5      80       150      0.1      0                        
742              1                213              1.5      80       150      0.1      0                        
743              1                162              1.5      80       150      0.1      0                        
744              1                203              1        80       100      0.1      0                        
745              1                171              1.5      80       150      0.1      0                        
746              1                90               1.5      80       150      0.1      0                        
747              1                123              2        80       200      0.1      0                        

[SUBAREAS]
;;Subcatchment   N-Imperv   N-Perv     S-Imperv   S-Perv     PctZero    RouteTo    PctRouted 
;;-------------- ---------- ---------- ---------- ---------- ---------- ---------- ----------
532              0.015      0.24       1.5        8          25         OUTLET    
533              0.015      0.24       1.5        8          25         OUTLET    
534              0.015      0.24       1.5        8          25         OUTLET    
535              0.015      0.24       1.5        8          25         OUTLET    
536              0.015      0.24       1.5        8          25         OUTLET    
537              0.015      0.24       1.5        8          25         OUTLET    
538              0.015      0.24       1.5        8          25         OUTLET    
539              0.015      0.24       1.5        8          25         OUTLET    
540              0.015      0.24       1.5        8          25         OUTLET    
541              0.015      0.24       1.5        8          25         OUTLET    
542              0.015      0.24       1.5        8          25         OUTLET    
543              0.015      0.24       1.5        8          25         OUTLET    
544              0.015      0.24       1.5        8          25         OUTLET    
545              0.015      0.24       1.5        8          25         OUTLET    
546              0.015      0.24       1.5        8          25         OUTLET    
547              0.015      0.24       1.5        8          25         OUTLET    
548              0.015      0.24       1.5        8          25         OUTLET    
549              0.015      0.24       1.5        8          25         OUTLET    
550              0.015      0.24       1.5        8          25         OUTLET    
551              0.015      0.24       1.5        8          25         OUTLET    
552              0.015      0.24       1.5        8          25         OUTLET    
553              0.015      0.24       1.5        8          25         OUTLET    
554              0.015      0.24       1.5        8          25         OUTLET    
555              0.015      0.24       1.5        8          25         OUTLET    
556              0.015      0.24       1.5        8          25         OUTLET    
557              0.015      0.24       1.5        8          25         OUTLET    
558              0.015      0.24       1.5        8          25         OUTLET    
559              0.015      0.24       1.5        8          25         OUTLET    
560              0.015      0.24       1.5        8          25         OUTLET    
561              0.015      0.24       1.5        8          25         OUTLET    
562              0.015      0.24       1.5        8          25         OUTLET    
563              0.015      0.24       1.5        8          25         OUTLET    
564              0.015      0.24       1.5        8          25         OUTLET    
565              0.015      0.24       1.5        8          25         OUTLET    
566              0.015      0.24       1.5        8          25         OUTLET    
567              0.015      0.24       1.5        8          25         OUTLET    
568              0.015      0.24       1.5        8          25         OUTLET    
569              0.015      0.24       1.5        8          25         OUTLET    
570              0.015      0.24       1.5        8          25         OUTLET    
571              0.015      0.24       1.5        8          25         OUTLET    
572              0.015      0.24       1.5        8          25         OUTLET    
573              0.015      0.24       1.5        8          25         OUTLET    
574              0.015      0.24       1.5        8          25         OUTLET    
575              0.015      0.24       1.5        8          25         OUTLET    
576              0.015      0.24       1.5        8          25         OUTLET    
577              0.015      0.24       1.5        8          25         OUTLET    
578              0.015      0.24       1.5        8          25         OUTLET    